Version 4
SHEET 1 880 680
WIRE 48 16 -64 16
WIRE 256 16 128 16
WIRE 480 16 336 16
WIRE -64 112 -64 16
WIRE 480 112 480 16
WIRE -64 256 -64 192
WIRE 480 256 480 176
WIRE 480 256 -64 256
WIRE -64 272 -64 256
FLAG -64 272 0
SYMBOL g -64 96 R0
SYMATTR InstName G1
SYMBOL ind 144 0 R90
WINDOW 0 5 56 VBottom 2
WINDOW 3 32 56 VTop 2
SYMATTR InstName L1
SYMBOL res 352 0 R90
WINDOW 0 0 56 VBottom 2
WINDOW 3 32 56 VTop 2
SYMATTR InstName R1
SYMBOL cap 464 112 R0
SYMATTR InstName C1
