Version 4
SHEET 1 1068 680
WIRE 0 -16 -208 -16
WIRE 240 -16 80 -16
WIRE -208 48 -208 -16
WIRE 240 64 240 -16
WIRE -208 208 -208 128
WIRE 240 208 240 144
WIRE 240 208 -208 208
WIRE -208 224 -208 208
FLAG -208 224 0
SYMBOL res 96 -32 R90
WINDOW 0 0 56 VBottom 2
WINDOW 3 32 56 VTop 2
SYMATTR InstName R1
SYMATTR Value 100
SYMBOL ind 224 48 R0
SYMATTR InstName L1
SYMATTR Value 0.01
SYMBOL voltage -208 32 R0
WINDOW 123 0 0 Left 0
WINDOW 39 0 0 Left 0
SYMATTR InstName V1
SYMATTR Value PULSE(0 5 0 1n 1n 150m 300m)
TEXT -242 248 Left 2 !.tran 1
